Version,
  34.7;

HVACTemplate:Something,
  Field1,
  Field2;
